*transient response
.include ../AE01.03.09.248.cir
*
.param frec=2000
.param ncycles=30
.param Vin=12
.param vpul=5
.param tr=50n
.param tf=50n
*
.param cycle=1/frec
.param x_base=cycle*ncycles
.tran 0 {x_base} 0 startup uic
*
.param percent=90
.param duty=(percent/100)*cycle
*
.param Rsense=1
.param Rpd=100k
*
.backanno
.end
